#!/usr/bin/bash Packages
 &PACKAGES
 useMNC=.TRUE.,
 useDIAGNOSTICS=.TRUE.,
 &
