#!sh ====================
# | Model parameters |
# ====================
#
# Continuous equation parameters
 &PARM01
 viscAh=1.0E-6,
 viscAz=1.0E-6,
 no_slip_sides=.FALSE.,
 no_slip_bottom=.TRUE.,
 bottomDragQuadratic=1e-3,
 diffKhT=1.5E-7,
 diffKzT=1.5E-7,
 diffKhS=1.0E-6,
 diffKzS=1.0E-6,
 f0=3.491,
 eosType='LINEAR',
 sBeta =7.4e-4,
 saltAdvScheme=33,
 rigidLid=.FALSE.,
 implicitFreeSurface=.TRUE.,
 nonHydrostatic=.FALSE.,
 tempStepping=.FALSE.,
 saltStepping=.FALSE.,
 readBinaryPrec=32,
 &

# Elliptic solver parameters
 &PARM02
 cg2dMaxIters=1000,
 cg2dTargetResidual=1.E-7,
 cg3dMaxIters=10,
 cg3dTargetResidual=1.E-9,
 &

# Time stepping parameters
 &PARM03
 nIter0=0,
 endTime=600,
 deltaT=0.01,
 abEps=0.1,
 pChkptFreq=0.0,
 dumpFreq=5.0,
 monitorSelect=2,
 monitorFreq=180,
 &

# Gridding parameters
 &PARM04
 delXfile='dx.box',
 delYfile='dy.box',
 delrfile='dz.box',
 &

# Input datasets
 &PARM05
 checkIniSalt=.FALSE.,
# hydrogSaltFile='sinit.box',
 pSurfInitFile='einit.box',
 bathyFile='topo.box',
 uVelInitFile='uinit.box',
 vVelInitFile='vinit.box',
 &
