#!sh Packages
 &PACKAGES
 useMNC=.FALSE.,
 useKPP=.TRUE.,
 useDIAGNOSTICS=.TRUE.,
 &
