#!sh ====================
# | Model parameters |
# ====================
#
# Continuous equation parameters
 &PARM01
 viscAz=1.0,
 no_slip_bottom=.TRUE.,
 f0=0.0,
 rigidLid=.FALSE.,
 implicitFreeSurface=.TRUE.,
 tempStepping=.FALSE.,
 saltStepping=.FALSE.,
 readBinaryPrec=32,
 &

# Elliptic solver parameters
 &PARM02
 cg2dMaxIters=1000,
 cg2dTargetResidual=1.E-7,
 cg3dMaxIters=10,
 cg3dTargetResidual=1.E-9,
 &

# Time stepping parameters
 &PARM03
 nIter0=0,
 endTime=60,
 deltaT=0.001,
 abEps=0.1,
 pChkptFreq=0.0,
 dumpFreq=2.0,
 monitorSelect=2,
 monitorFreq=180,
 &

# Gridding parameters
 &PARM04
 delXfile='dx.box',
 delYfile='dy.box',
 delrfile='dz.box',
 &

# Input datasets
 &PARM05
# checkIniSalt=.FALSE.,
 bathyFile='topo.box',
 uVelInitFile='uinit.box',
 &
