#!/usr/bin/bash Packages
 &PACKAGES
 useMNC=.FALSE.,
 useDIAGNOSTICS=.TRUE.,
 &
