#!/usr/bin/bash Packages
 &PACKAGES
 useOBCS=.TRUE.,
 useMNC=.FALSE.,
 useDIAGNOSTICS=.TRUE.,
 &
