#!/usr/bin/bash Packages
 &PACKAGES
 useOBCS=.FALSE.,
 useRBCS=.FALSE.,
 useMNC=.TRUE.,
 useDIAGNOSTICS=.FALSE.,
 useKPP=.TRUE.,
 useCHEAPAML=.TRUE.,
 &
