#!sh RBCS package parameters:
&RBCS_PARM01
 tauRelaxT=600.,
 relaxMaskFile='tmask.box',
 useRBCtemp=.TRUE.,
 relaxTFile='trelax.box',
 &

# RBCS for pTracers (read this namelist only when ptracers pkg is compiled)
 &RBCS_PARM02
 &
