#!/usr/bin/bash Packages
 &PACKAGES
 useOBCS=.FALSE.,
 useRBCS=.TRUE.,
 useMNC=.TRUE.,
 useDIAGNOSTICS=.FALSE.,
 useggl90=.TRUE.,
 useCHEAPAML=.TRUE.,
 &
