#!/usr/bin/bash Packages
 &PACKAGES
 useOBCS=.FALSE.,
 useRBCS=.TRUE.,
 useMNC=.TRUE.,
 useDIAGNOSTICS=.TRUE.,
 useKPP=.TRUE.,
 useCHEAPAML=.FALSE.,
 &
