#!/usr/bin/bash Packages
 &PACKAGES
 useOBCS=.FALSE.,
 useRBCS=.TRUE.,
 useMNC=.FALSE.,
 useDIAGNOSTICS=.TRUE.,
 useggl90=.TRUE.,
 useCHEAPAML=.TRUE.,
 &
