#!sh Packages
 &PACKAGES
 useMNC=.TRUE.,
 useOBCS=.TRUE.,
 useRBCS=.TRUE.,
 useDIAGNOSTICS=.FALSE.,
 &
