#!sh ====================
# | Model parameters |
# ====================
#
# Continuous equation parameters
 &PARM01
 tRefFile='tref.box'
 viscAh=1e0, 
 viscAz=1e0, 
 viscA4=2.0e5,
# bottomDragQuadratic=0.003, # for log layer
 no_slip_sides=.FALSE.,
 no_slip_bottom=.TRUE.,
 diffKhT=2.e0,
 diffKzT=2.e0,
 diffK4T=2.0e5,
 f0=0.0,
 eosType='LINEAR',
# tempAdvScheme=33,
 hFacmin=0.1,
 rigidLid=.FALSE.,
 implicitFreeSurface=.TRUE.,
 nonHydrostatic=.FALSE.,
 saltStepping=.FALSE.,
 readBinaryPrec=32,
 implicitDiffusion=.TRUE.,
 implicitviscosity=.TRUE.,
# viscC4leith = 1.85,
## -This is an additional Leith Viscosity, prop to grad(div.v_h)
##  It traps instabilities that have no signal in grad(curl v_h)
# viscC4leithD = 1.85,
# useFullLeith=.TRUE.,
 &

# Elliptic solver parameters
 &PARM02
 cg2dMaxIters=1000,
 cg2dTargetResidual=1.E-7,
 cg3dMaxIters=100,
 cg3dTargetResidual=1.E-9,
 &

# Time stepping parameters
 &PARM03
 nIter0=0,
 endTime=86400,
 deltaT=0.5,
 abEps=0.1,
 pChkptFreq=0.0,
 chkPtFreq=0.0,
 dumpFreq=200.0,
 monitorSelect=2,
 monitorFreq=180,
 &

# Gridding parameters
 &PARM04
 delXfile='dx.box',
 delYfile='dy.box',
 delrfile='dz.box',
 &

# Input datasets
 &PARM05
 checkIniTemp=.FALSE.,
 hydrogThetaFile='tinit.box',
 bathyFile='topo.box',
 uVelInitFile='uinit.box',
# vVelInitFile='vinit.box',
# diffKrFile='Kr.box'
 &
