#!sh Packages
 &PACKAGES
 useMNC=.TRUE.,
 useDIAGNOSTICS=.FALSE.,
 &
