#!/usr/bin/bash Packages
 &PACKAGES
 useMNC=.TRUE.,
 useKPP=.TRUE.,
 useDIAGNOSTICS=.FALSE.,
 &
