#!sh Packages
 &PACKAGES
 useMNC=.TRUE.,
 useDIAGNOSTICS=.TRUE.,
 &
