#!/usr/bin/bash Packages
 &PACKAGES
 useMNC=.TRUE.,
 useggl90=.TRUE.,
 usegmredi=.FALSE.,
 useDIAGNOSTICS=.FALSE.,
 &
