#!sh RBCS package parameters:
&RBCS_PARM01
 tauRelaxT=36000.,
 relaxMaskFile='tmask.box',
 useRBCtemp=.TRUE.,
 relaxTFile='trelax.box',
 &

# RBCS for pTracers (read this namelist only when ptracers pkg is compiled)
 &RBCS_PARM02
 &

# namelist for filtering
 &RBCS_PARM03
 useRBCfilter=.TRUE.,
 filterlengthFile='filter_length.box',
 box_filter_size=3
# filterlength=500000
 &
