#!sh =====================================================================
# | Parameters for Gaspar et al. (1990)'s TKE vertical mixing scheme  |
# =====================================================================
 &GGL90_PARM01
 GGL90writeState=.FALSE.,
#GGL90diffTKEh=1.e3,
#GGL90alpha=30.,
#GGL90TKEFile = 'TKE.init',
# GGL90TKEmin = 1.e-7,
#GGL90ck=0.15,
#GGL90ceps = 0.35,
#GGL90m2 = 5.,
# GGL90mixingLengthMin=3.,
 mxlMaxFlag =2,
 mxlSurfFlag=.TRUE.,
 &
