#!/usr/bin/bash Packages
 &PACKAGES
 useMNC=.TRUE.,
 useRBCS=.TRUE.,
 useggl90=.FALSE.,
 usegmredi=.FALSE.,
 useDIAGNOSTICS=.FALSE.,
 &
