#!sh Packages
 &PACKAGES
 useMNC=.FALSE.,
 useKPP=.TRUE.,
 useFLT=.TRUE.,
 &
