#!sh
 &KPP_PARM01
 KPPwriteState=.FALSE.,
 minKPPhbl = 10.,
 Ricr = 0.45,
 &
